21604864
  -OEChem-09072417262D

 27 27  0     1  0  0  0  0  0999 V2000
    2.8660    1.9720    0.0000 P   0  0  0  0  0  0  0  0  0  0  0  0
    5.4641    0.4720    0.0000 O   0  0  0  0  0  0  0  0  0  0  0  0
    3.7320   -1.5280    0.0000 O   0  0  0  0  0  0  0  0  0  0  0  0
    5.4641   -2.5280    0.0000 O   0  0  0  0  0  0  0  0  0  0  0  0
    7.1962   -1.5280    0.0000 O   0  0  0  0  0  0  0  0  0  0  0  0
    7.1962    0.4720    0.0000 O   0  0  0  0  0  0  0  0  0  0  0  0
    3.7320    1.4720    0.0000 O   0  0  0  0  0  0  0  0  0  0  0  0
    2.0000    2.4720    0.0000 O   0  5  0  0  0  0  0  0  0  0  0  0
    3.3660    2.8380    0.0000 O   0  5  0  0  0  0  0  0  0  0  0  0
    2.3660    1.1060    0.0000 O   0  0  0  0  0  0  0  0  0  0  0  0
    4.5981   -1.0280    0.0000 C   0  0  1  0  0  0  0  0  0  0  0  0
    5.4641   -1.5280    0.0000 C   0  0  1  0  0  0  0  0  0  0  0  0
    4.5981   -0.0280    0.0000 C   0  0  1  0  0  0  0  0  0  0  0  0
    6.3301   -1.0280    0.0000 C   0  0  2  0  0  0  0  0  0  0  0  0
    6.3301   -0.0280    0.0000 C   0  0  2  0  0  0  0  0  0  0  0  0
    3.7320    0.4720    0.0000 C   0  0  0  0  0  0  0  0  0  0  0  0
    4.5981   -1.6480    0.0000 H   0  0  0  0  0  0  0  0  0  0  0  0
    4.9272   -1.8380    0.0000 H   0  0  0  0  0  0  0  0  0  0  0  0
    4.5981    0.5920    0.0000 H   0  0  0  0  0  0  0  0  0  0  0  0
    6.3301   -1.6480    0.0000 H   0  0  0  0  0  0  0  0  0  0  0  0
    6.3301    0.5920    0.0000 H   0  0  0  0  0  0  0  0  0  0  0  0
    3.1215    0.5796    0.0000 H   0  0  0  0  0  0  0  0  0  0  0  0
    3.5200   -0.1106    0.0000 H   0  0  0  0  0  0  0  0  0  0  0  0
    3.1951   -1.2180    0.0000 H   0  0  0  0  0  0  0  0  0  0  0  0
    6.0010   -2.8380    0.0000 H   0  0  0  0  0  0  0  0  0  0  0  0
    7.7331   -1.2180    0.0000 H   0  0  0  0  0  0  0  0  0  0  0  0
    7.1962    1.0920    0.0000 H   0  0  0  0  0  0  0  0  0  0  0  0
  1  7  1  0  0  0  0
  1  8  1  0  0  0  0
  1  9  1  0  0  0  0
  1 10  2  0  0  0  0
  2 13  1  0  0  0  0
  2 15  1  0  0  0  0
 11  3  1  6  0  0  0
  3 24  1  0  0  0  0
 12  4  1  1  0  0  0
  4 25  1  0  0  0  0
 14  5  1  6  0  0  0
  5 26  1  0  0  0  0
 15  6  1  6  0  0  0
  6 27  1  0  0  0  0
  7 16  1  0  0  0  0
 11 12  1  0  0  0  0
 11 13  1  0  0  0  0
 11 17  1  0  0  0  0
 12 14  1  0  0  0  0
 12 18  1  0  0  0  0
 13 16  1  1  0  0  0
 13 19  1  0  0  0  0
 14 15  1  0  0  0  0
 14 20  1  0  0  0  0
 15 21  1  0  0  0  0
 16 22  1  0  0  0  0
 16 23  1  0  0  0  0
M  CHG  2   8  -1   9  -1
M  END
> <PUBCHEM_COMPOUND_CID>
21604864

> <PUBCHEM_COMPOUND_CANONICALIZED>
1

> <PUBCHEM_CACTVS_COMPLEXITY>
266

> <PUBCHEM_CACTVS_HBOND_ACCEPTOR>
9

> <PUBCHEM_CACTVS_HBOND_DONOR>
4

> <PUBCHEM_CACTVS_ROTATABLE_BOND>
2

> <PUBCHEM_CACTVS_SUBSKEYS>
AAADccBgPAIAAAAAAAAAAAAAAAAAAAAAAAAkAAAAAAAAAAAAAAAAGgAACCAACBSwgAMACAAABxAAQAAAAIAAAAAAAAAAAAAAAAAREAIAAAACQAAFAAAHAAHAYAQAAAAAAAAAAAAAAAAAAAAAAAAAAAAAAA==

> <PUBCHEM_IUPAC_OPENEYE_NAME>
[(2R,3S,4S,5R,6S)-3,4,5,6-tetrahydroxytetrahydropyran-2-yl]methyl phosphate

> <PUBCHEM_IUPAC_CAS_NAME>
[(2R,3S,4S,5R,6S)-3,4,5,6-tetrahydroxy-2-oxanyl]methyl phosphate

> <PUBCHEM_IUPAC_NAME_MARKUP>
[(2<I>R</I>,3<I>S</I>,4<I>S</I>,5<I>R</I>,6<I>S</I>)-3,4,5,6-tetrahydroxyoxan-2-yl]methyl phosphate

> <PUBCHEM_IUPAC_NAME>
[(2R,3S,4S,5R,6S)-3,4,5,6-tetrahydroxyoxan-2-yl]methyl phosphate

> <PUBCHEM_IUPAC_SYSTEMATIC_NAME>
[(2R,3S,4S,5R,6S)-3,4,5,6-tetrakis(oxidanyl)oxan-2-yl]methyl phosphate

> <PUBCHEM_IUPAC_TRADITIONAL_NAME>
[(2R,3S,4S,5R,6S)-3,4,5,6-tetrahydroxytetrahydropyran-2-yl]methyl phosphate

> <PUBCHEM_IUPAC_INCHI>
InChI=1S/C6H13O9P/c7-3-2(1-14-16(11,12)13)15-6(10)5(9)4(3)8/h2-10H,1H2,(H2,11,12,13)/p-2/t2-,3-,4+,5-,6+/m1/s1

> <PUBCHEM_IUPAC_INCHIKEY>
NBSCHQHZLSJFNQ-DVKNGEFBSA-L

> <PUBCHEM_XLOGP3_AA>
-4.4

> <PUBCHEM_EXACT_MASS>
258.01406892

> <PUBCHEM_MOLECULAR_FORMULA>
C6H11O9P-2

> <PUBCHEM_MOLECULAR_WEIGHT>
258.12

> <PUBCHEM_OPENEYE_CAN_SMILES>
C(C1C(C(C(C(O1)O)O)O)O)OP(=O)([O-])[O-]

> <PUBCHEM_OPENEYE_ISO_SMILES>
C([C@@H]1[C@H]([C@@H]([C@H]([C@H](O1)O)O)O)O)OP(=O)([O-])[O-]

> <PUBCHEM_CACTVS_TPSA>
163

> <PUBCHEM_MONOISOTOPIC_WEIGHT>
258.01406892

> <PUBCHEM_TOTAL_CHARGE>
-2

> <PUBCHEM_HEAVY_ATOM_COUNT>
16

> <PUBCHEM_ATOM_DEF_STEREO_COUNT>
5

> <PUBCHEM_ATOM_UDEF_STEREO_COUNT>
0

> <PUBCHEM_BOND_DEF_STEREO_COUNT>
0

> <PUBCHEM_BOND_UDEF_STEREO_COUNT>
0

> <PUBCHEM_ISOTOPIC_ATOM_COUNT>
0

> <PUBCHEM_COMPONENT_COUNT>
1

> <PUBCHEM_CACTVS_TAUTO_COUNT>
-1

> <PUBCHEM_COORDINATE_TYPE>
1
5
255

> <PUBCHEM_BONDANNOTATIONS>
13  16  5
11  3  6
12  4  5
14  5  6
15  6  6

$$$$
