24794350
  -OEChem-09072417112D

 15 14  0     1  0  0  0  0  0999 V2000
    2.8660   -0.4720    0.0000 P   0  0  0  0  0  0  0  0  0  0  0  0
    3.7320    0.0280    0.0000 O   0  0  0  0  0  0  0  0  0  0  0  0
    5.4641    1.0280    0.0000 O   0  0  0  0  0  0  0  0  0  0  0  0
    2.0000   -0.9720    0.0000 O   0  5  0  0  0  0  0  0  0  0  0  0
    2.3660    0.3940    0.0000 O   0  5  0  0  0  0  0  0  0  0  0  0
    3.3660   -1.3380    0.0000 O   0  0  0  0  0  0  0  0  0  0  0  0
    7.1962    0.0280    0.0000 O   0  0  0  0  0  0  0  0  0  0  0  0
    4.5981   -0.4720    0.0000 C   0  0  0  0  0  0  0  0  0  0  0  0
    5.4641    0.0280    0.0000 C   0  0  2  0  0  0  0  0  0  0  0  0
    6.3301   -0.4720    0.0000 C   0  0  0  0  0  0  0  0  0  0  0  0
    4.1996   -0.9469    0.0000 H   0  0  0  0  0  0  0  0  0  0  0  0
    4.9966   -0.9469    0.0000 H   0  0  0  0  0  0  0  0  0  0  0  0
    6.0010    0.3380    0.0000 H   0  0  0  0  0  0  0  0  0  0  0  0
    6.3301   -1.0920    0.0000 H   0  0  0  0  0  0  0  0  0  0  0  0
    6.0010    1.3380    0.0000 H   0  0  0  0  0  0  0  0  0  0  0  0
  1  2  1  0  0  0  0
  1  4  1  0  0  0  0
  1  5  1  0  0  0  0
  1  6  2  0  0  0  0
  2  8  1  0  0  0  0
  9  3  1  1  0  0  0
  3 15  1  0  0  0  0
  7 10  2  0  0  0  0
  8  9  1  0  0  0  0
  8 11  1  0  0  0  0
  8 12  1  0  0  0  0
  9 10  1  0  0  0  0
  9 13  1  0  0  0  0
 10 14  1  0  0  0  0
M  CHG  2   4  -1   5  -1
M  END
> <PUBCHEM_COMPOUND_CID>
24794350

> <PUBCHEM_COMPOUND_CANONICALIZED>
1

> <PUBCHEM_CACTVS_COMPLEXITY>
138

> <PUBCHEM_CACTVS_HBOND_ACCEPTOR>
6

> <PUBCHEM_CACTVS_HBOND_DONOR>
1

> <PUBCHEM_CACTVS_ROTATABLE_BOND>
3

> <PUBCHEM_CACTVS_SUBSKEYS>
AAADcYBAOAIAAAAAAAAAAAAAAAAAAAAAAAAAAAAAAAAAAAAAAAAAGgAACCAACBSggAIAAAAAAxAIQAgQgIIAAAAAAAAAAAFAAAABEAQAAAAAAAAAIAABAAAAAAAAAAAAAAAAAAAAAAAAAAAAAAAAAAAAAA==

> <PUBCHEM_IUPAC_OPENEYE_NAME>
[(2R)-2-hydroxy-3-oxo-propyl] phosphate

> <PUBCHEM_IUPAC_CAS_NAME>
[(2R)-2-hydroxy-3-oxopropyl] phosphate

> <PUBCHEM_IUPAC_NAME_MARKUP>
[(2<I>R</I>)-2-hydroxy-3-oxopropyl] phosphate

> <PUBCHEM_IUPAC_NAME>
[(2R)-2-hydroxy-3-oxopropyl] phosphate

> <PUBCHEM_IUPAC_SYSTEMATIC_NAME>
[(2R)-2-oxidanyl-3-oxidanylidene-propyl] phosphate

> <PUBCHEM_IUPAC_TRADITIONAL_NAME>
[(2R)-2-hydroxy-3-keto-propyl] phosphate

> <PUBCHEM_IUPAC_INCHI>
InChI=1S/C3H7O6P/c4-1-3(5)2-9-10(6,7)8/h1,3,5H,2H2,(H2,6,7,8)/p-2/t3-/m0/s1

> <PUBCHEM_IUPAC_INCHIKEY>
LXJXRIRHZLFYRP-VKHMYHEASA-L

> <PUBCHEM_XLOGP3_AA>
-2.8

> <PUBCHEM_EXACT_MASS>
167.98237487

> <PUBCHEM_MOLECULAR_FORMULA>
C3H5O6P-2

> <PUBCHEM_MOLECULAR_WEIGHT>
168.04

> <PUBCHEM_OPENEYE_CAN_SMILES>
C(C(C=O)O)OP(=O)([O-])[O-]

> <PUBCHEM_OPENEYE_ISO_SMILES>
C([C@H](C=O)O)OP(=O)([O-])[O-]

> <PUBCHEM_CACTVS_TPSA>
110

> <PUBCHEM_MONOISOTOPIC_WEIGHT>
167.98237487

> <PUBCHEM_TOTAL_CHARGE>
-2

> <PUBCHEM_HEAVY_ATOM_COUNT>
10

> <PUBCHEM_ATOM_DEF_STEREO_COUNT>
1

> <PUBCHEM_ATOM_UDEF_STEREO_COUNT>
0

> <PUBCHEM_BOND_DEF_STEREO_COUNT>
0

> <PUBCHEM_BOND_UDEF_STEREO_COUNT>
0

> <PUBCHEM_ISOTOPIC_ATOM_COUNT>
0

> <PUBCHEM_COMPONENT_COUNT>
1

> <PUBCHEM_CACTVS_TAUTO_COUNT>
-1

> <PUBCHEM_COORDINATE_TYPE>
1
5
255

> <PUBCHEM_BONDANNOTATIONS>
9  3  5

$$$$
